Circuit: * C:\Users\Nanodyn - Spare\OneDrive - Nanodyn\Shared_Data\Product Development\Projects\Sledgehammer\Version1.0\Sub-systems\5 - Amplifier Enclosure\LTSpice_InterfacePCB_Models\Current_Circuits_Frequency.asc

Number of points per octave reduced from 5000 to 1903.
Direct Newton iteration failed to find .op point.  (Use ".option noopiter" to skip.)
Starting Gmin stepping
Gmin = 10
Gmin = 1.07374
vernier = 0.5
vernier = 0.25
vernier = 0.125
vernier = 0.0625
vernier = 0.03125
Gmin = 1.0412
vernier = 0.015625
vernier = 0.0078125
Gmin = 1.0132
vernier = 0.00390625
vernier = 0.00195313
Gmin = 1.00827
vernier = 0.00260417
vernier = 0.00130208
Gmin = 1.00515
vernier = 0.000651042
vernier = 0.000868055
vernier = 0.000434028
Gmin = 1.00434
vernier = 0.000578703
vernier = 0.000434027
Gmin = 1.00339
Gmin = 0
Gmin stepping failed

Starting source stepping with srcstepmethod=0
Source Step = 3.0303%
Source Step = 16.6667%
Source Step = 18.9394%
Source Step = 20.2178%
Source Step = 20.6913%
Source Step = 21.1648%
Source Step = 21.6383%
Source Step = 22.1117%
vernier = 0.0234375
Source Step = 22.6326%
Source Step = 23.3428%
Source Step = 24.053%
Source Step = 24.4259%
Source Step = 24.6035%
Source Step = 24.781%
Source Step = 24.9586%
Source Step = 25.1361%
vernier = 0.00878906
Source Step = 25.3492%
Source Step = 25.6155%
Source Step = 25.8819%
Source Step = 26.1482%
Source Step = 26.4145%
vernier = 0.0131836
Source Step = 26.6209%
Source Step = 26.7208%
Source Step = 26.8207%
Source Step = 26.9206%
Source Step = 27.0204%
vernier = 0.00494385
Source Step = 27.1253%
Source Step = 27.2751%
Source Step = 27.4249%
Source Step = 27.5748%
Source Step = 27.7246%
Source Step = 27.8744%
vernier = 0.00741577
Source Step = 28.0991%
Source Step = 28.3238%
Source Step = 28.5485%
Source Step = 28.7733%
Source Step = 28.998%
vernier = 0.0111237
Source Step = 29.0879%
Source Step = 29.1721%
Source Step = 29.2564%
Source Step = 29.3407%
Source Step = 29.425%
vernier = 0.00417137
Source Step = 29.5387%
Source Step = 29.6651%
Source Step = 29.7915%
Source Step = 29.9179%
Source Step = 30.0443%
vernier = 0.00625706
Source Step = 30.2087%
Source Step = 30.3983%
Source Step = 30.5879%
Source Step = 30.7775%
Source Step = 30.9671%
vernier = 0.00938559
Source Step = 31.0903%
Source Step = 31.1614%
Source Step = 31.2326%
Source Step = 31.3037%
Source Step = 31.3748%
vernier = 0.00351959
Source Step = 31.4565%
Source Step = 31.5632%
Source Step = 31.6698%
Source Step = 31.7765%
Source Step = 31.8831%
vernier = 0.00527939
Source Step = 32.0005%
Source Step = 32.1604%
Source Step = 32.3204%
Source Step = 32.4804%
Source Step = 32.6404%
vernier = 0.00791909
Source Step = 32.8084%
vernier = 0.00197977
Source Step = 32.8444%
Source Step = 32.9044%
Source Step = 32.9644%
Source Step = 33.0243%
Source Step = 33.0843%
vernier = 0.00296966
Source Step = 33.1713%
Source Step = 33.2613%
Source Step = 33.3513%
Source Step = 33.4413%
Source Step = 33.5313%
vernier = 0.00445449
Source Step = 33.6573%
Source Step = 33.7923%
Source Step = 33.9272%
Source Step = 34.0622%
Source Step = 34.1972%
vernier = 0.00668173
Source Step = 34.2681%
Source Step = 34.3187%
Source Step = 34.3693%
Source Step = 34.4199%
Source Step = 34.4706%
vernier = 0.00250565
Source Step = 34.5338%
Source Step = 34.6098%
Source Step = 34.6857%
Source Step = 34.7616%
Source Step = 34.8375%
vernier = 0.00375847
Source Step = 34.9287%
Source Step = 35.0425%
Source Step = 35.1564%
Source Step = 35.2703%
Source Step = 35.3842%
vernier = 0.00563771
Source Step = 35.4725%
Source Step = 35.5152%
Source Step = 35.5579%
Source Step = 35.6006%
Source Step = 35.6433%
vernier = 0.00211414
Source Step = 35.6882%
Source Step = 35.7522%
Source Step = 35.8163%
Source Step = 35.8804%
Source Step = 35.9444%
Source Step = 36.0085%
vernier = 0.00317121
Source Step = 36.1046%
Source Step = 36.2007%
Source Step = 36.2968%
Source Step = 36.3929%
Source Step = 36.489%
vernier = 0.00475682
Source Step = 36.5274%
Source Step = 36.5635%
Source Step = 36.5995%
Source Step = 36.6355%
Source Step = 36.6716%
vernier = 0.00178381
Source Step = 36.7202%
Source Step = 36.7743%
Source Step = 36.8283%
Source Step = 36.8824%
Source Step = 36.9364%
vernier = 0.00267571
Source Step = 37.0067%
Source Step = 37.0878%
Source Step = 37.1689%
Source Step = 37.25%
Source Step = 37.331%
vernier = 0.00401357
Source Step = 37.3837%
Source Step = 37.4142%
Source Step = 37.4446%
Source Step = 37.475%
Source Step = 37.5054%
vernier = 0.00150509
Source Step = 37.5403%
Source Step = 37.5859%
Source Step = 37.6316%
Source Step = 37.6772%
Source Step = 37.7228%
vernier = 0.00225763
Source Step = 37.7729%
Source Step = 37.8414%
Source Step = 37.9098%
Source Step = 37.9782%
Source Step = 38.0466%
vernier = 0.00338645
Source Step = 38.1184%
Source Step = 38.221%
Source Step = 38.3237%
Source Step = 38.4006%
Source Step = 38.4263%
Source Step = 38.4519%
Source Step = 38.4776%
Source Step = 38.5033%
vernier = 0.00126992
Source Step = 38.5302%
Source Step = 38.5687%
Source Step = 38.6072%
Source Step = 38.6456%
Source Step = 38.6841%
Source Step = 38.7226%
vernier = 0.00190488
Source Step = 38.7803%
Source Step = 38.838%
Source Step = 38.8958%
Source Step = 38.9535%
Source Step = 39.0112%
vernier = 0.00285731
Source Step = 39.0949%
Source Step = 39.1815%
Source Step = 39.2681%
Source Step = 39.3547%
Source Step = 39.4413%
vernier = 0.00428597
Source Step = 39.4813%
Source Step = 39.5138%
Source Step = 39.5462%
Source Step = 39.5787%
Source Step = 39.6112%
vernier = 0.00160724
Source Step = 39.6534%
Source Step = 39.7021%
Source Step = 39.7508%
Source Step = 39.7995%
Source Step = 39.8482%
vernier = 0.00241086
Source Step = 39.9091%
Source Step = 39.9821%
Source Step = 40.0552%
Source Step = 40.1283%
Source Step = 40.2013%
vernier = 0.00361629
Source Step = 40.2534%
Source Step = 40.2808%
Source Step = 40.3082%
Source Step = 40.3356%
Source Step = 40.363%
vernier = 0.00135611
Source Step = 40.3931%
Source Step = 40.4342%
Source Step = 40.4753%
Source Step = 40.5164%
Source Step = 40.5575%
vernier = 0.00203416
Source Step = 40.6006%
Source Step = 40.6623%
Source Step = 40.7239%
Source Step = 40.7855%
Source Step = 40.8472%
Source Step = 40.9088%
vernier = 0.00305124
Source Step = 41.0013%
Source Step = 41.0937%
Source Step = 41.1862%
Source Step = 41.2787%
Source Step = 41.3711%
vernier = 0.00457686
Source Step = 41.5052%
Source Step = 41.6439%
Source Step = 41.7826%
Source Step = 41.9213%
Source Step = 42.06%
vernier = 0.0068653
Source Step = 42.2541%
Source Step = 42.4622%
Source Step = 42.6702%
Source Step = 42.8783%
Source Step = 43.0863%
vernier = 0.0102979
Source Step = 43.3672%
Source Step = 43.6792%
Source Step = 43.9913%
Source Step = 44.3033%
Source Step = 44.6154%
vernier = 0.0154469
Source Step = 45.0211%
Source Step = 45.4892%
Source Step = 45.9572%
Source Step = 46.4253%
Source Step = 46.8934%
vernier = 0.0231704
Source Step = 47.4785%
Source Step = 48.1807%
Source Step = 48.8828%
Source Step = 49.5849%
Source Step = 50.2871%
vernier = 0.0347556
Source Step = 51.1296%
Source Step = 52.1828%
Source Step = 53.236%
Source Step = 54.2892%
Source Step = 55.3424%
vernier = 0.0521333
Source Step = 56.5536%
Source Step = 58.1334%
Source Step = 59.7132%
Source Step = 61.293%
Source Step = 62.8728%
vernier = 0.0782
Source Step = 64.6106%
Source Step = 66.9803%
Source Step = 69.35%
Source Step = 71.7197%
Source Step = 74.0893%
vernier = 0.1173
Source Step = 76.5775%
Source Step = 80.1321%
Source Step = 83.6866%
Source Step = 87.2412%
Source Step = 90.7957%
Source Step = 94.3503%
vernier = 0.17595
Source Step = 99.6821%
Source stepping succeeded in finding the operating point.


Date: Tue May 18 13:52:05 2021
Total elapsed time: 0.525 seconds.

tnom = 27
temp = 27
method = trap
totiter = 55935
traniter = 0
tranpoints = 0
accept = 0
rejected = 0
matrix size = 17
fillins = 10
solver = Normal
Matrix Compiler1:      67 opcodes
Matrix Compiler2: off  [0.2]/0.2/0.2

