Circuit: * C:\Users\StephenBlomefield\OneDrive - Nanodyn\Shared_Data\Product Development\Projects\Sledgehammer\Version1.0\Sub-systems\5 - Amplifier Enclosure\LTSpice_InterfacePCB_Models\Draft2.asc

.OP point found by inspection.

Date: Mon Jul 19 08:58:33 2021
Total elapsed time: 0.046 seconds.

tnom = 27
temp = 27
method = modified trap
totiter = 2082
traniter = 2082
tranpoints = 1042
accept = 1042
rejected = 0
matrix size = 2
fillins = 0
solver = Normal
Matrix Compiler1:       2 opcodes  0.0/[0.0]/0.0
Matrix Compiler2: 96 bytes object code size  0.0/0.0/[0.0]

