Circuit: * C:\Users\Nanodyn - Spare\OneDrive - Nanodyn\Shared_Data\Product Development\Projects\Sledgehammer\Version1.0\Sub-systems\5 - Amplifier Enclosure\LTSpice_InterfacePCB_Models\Voltage_measurements.asc

R7: both pins shorted together -- ignoring.
C3: both pins shorted together -- ignoring.
R15: both pins shorted together -- ignoring.
C6: both pins shorted together -- ignoring.
Direct Newton iteration failed to find .op point.  (Use ".option noopiter" to skip.)
Starting Gmin stepping
Gmin = 10
Gmin = 1.07374
vernier = 0.5
vernier = 0.25
vernier = 0.125
vernier = 0.0625
vernier = 0.03125
Gmin = 1.0412
vernier = 0.015625
vernier = 0.0078125
Gmin = 1.0132
vernier = 0.00390625
vernier = 0.00195313
Gmin = 1.00827
vernier = 0.00260417
vernier = 0.00130208
Gmin = 1.00515
vernier = 0.000651042
vernier = 0.000868055
vernier = 0.000434028
Gmin = 1.00434
vernier = 0.000578703
vernier = 0.000434027
Gmin = 1.00339
Gmin = 0
Gmin stepping failed

Starting source stepping with srcstepmethod=0
Source Step = 3.0303%
Source Step = 16.6667%
Source Step = 18.9394%
Source Step = 20.8333%
vernier = 0.015625
Source Step = 21.1174%
Source Step = 21.5909%
Source Step = 22.0644%
Source Step = 22.5379%
Source Step = 23.0114%
vernier = 0.0234375
Source Step = 23.6979%
Source Step = 24.2839%
Source Step = 24.4614%
Source Step = 24.639%
Source Step = 24.8165%
Source Step = 24.9941%
Source Step = 25.1716%
vernier = 0.00878906
Source Step = 25.438%
Source Step = 25.7043%
Source Step = 25.9706%
Source Step = 26.237%
Source Step = 26.5033%
vernier = 0.0131836
Source Step = 26.8895%
Source Step = 27.0094%
Source Step = 27.1092%
Source Step = 27.2091%
Source Step = 27.309%
Source Step = 27.4089%
vernier = 0.00494385
Source Step = 27.5437%
Source Step = 27.6935%
Source Step = 27.8433%
Source Step = 27.9931%
Source Step = 28.1429%
vernier = 0.00741577
Source Step = 28.3377%
Source Step = 28.5624%
Source Step = 28.7871%
Source Step = 29.0119%
Source Step = 29.2366%
vernier = 0.0111237
Source Step = 29.3826%
Source Step = 29.4669%
Source Step = 29.5512%
Source Step = 29.6355%
Source Step = 29.7197%
vernier = 0.00417137
Source Step = 29.8166%
Source Step = 29.943%
Source Step = 30.0694%
Source Step = 30.1959%
Source Step = 30.3223%
vernier = 0.00625706
Source Step = 30.4613%
Source Step = 30.6509%
Source Step = 30.8405%
Source Step = 31.0301%
Source Step = 31.2197%
vernier = 0.00938559
Source Step = 31.4188%
vernier = 0.0023464
Source Step = 31.4615%
Source Step = 31.5326%
Source Step = 31.6037%
Source Step = 31.6748%
Source Step = 31.7459%
vernier = 0.00351959
Source Step = 31.849%
Source Step = 31.9557%
Source Step = 32.0623%
Source Step = 32.169%
Source Step = 32.2756%
vernier = 0.00527939
Source Step = 32.4249%
Source Step = 32.5849%
Source Step = 32.7449%
Source Step = 32.9049%
Source Step = 33.0649%
vernier = 0.00791909
Source Step = 33.1488%
Source Step = 33.2088%
Source Step = 33.2688%
Source Step = 33.3288%
Source Step = 33.3888%
vernier = 0.00296966
Source Step = 33.4638%
Source Step = 33.5538%
Source Step = 33.6438%
Source Step = 33.7338%
Source Step = 33.8238%
vernier = 0.00445449
Source Step = 33.9318%
Source Step = 34.0667%
Source Step = 34.2017%
Source Step = 34.3367%
Source Step = 34.4717%
vernier = 0.00668173
Source Step = 34.5763%
Source Step = 34.6269%
Source Step = 34.6775%
Source Step = 34.7282%
Source Step = 34.7788%
vernier = 0.00250565
Source Step = 34.8319%
Source Step = 34.9079%
Source Step = 34.9838%
Source Step = 35.0597%
Source Step = 35.1357%
Source Step = 35.2116%
vernier = 0.00375847
Source Step = 35.3255%
Source Step = 35.4394%
Source Step = 35.5533%
Source Step = 35.6672%
Source Step = 35.781%
vernier = 0.00563771
Source Step = 35.8266%
Source Step = 35.8693%
Source Step = 35.912%
Source Step = 35.9547%
Source Step = 35.9974%
vernier = 0.00211414
Source Step = 36.0551%
Source Step = 36.1192%
Source Step = 36.1832%
Source Step = 36.2473%
Source Step = 36.3114%
vernier = 0.00317121
Source Step = 36.3946%
Source Step = 36.4907%
Source Step = 36.5868%
Source Step = 36.6829%
Source Step = 36.779%
vernier = 0.00475682
Source Step = 36.8992%
Source Step = 37.0433%
Source Step = 37.1874%
Source Step = 37.3316%
Source Step = 37.4757%
vernier = 0.00713523
Source Step = 37.5784%
Source Step = 37.6325%
Source Step = 37.6866%
Source Step = 37.7406%
Source Step = 37.7947%
vernier = 0.00267571
Source Step = 37.8541%
Source Step = 37.9352%
Source Step = 38.0163%
Source Step = 38.0974%
Source Step = 38.1785%
vernier = 0.00401357
Source Step = 38.2636%
Source Step = 38.3852%
Source Step = 38.5068%
Source Step = 38.6285%
Source Step = 38.7501%
Source Step = 38.8717%
vernier = 0.00602035
Source Step = 38.9128%
Source Step = 38.9584%
Source Step = 39.004%
Source Step = 39.0496%
Source Step = 39.0952%
vernier = 0.00225763
Source Step = 39.159%
Source Step = 39.2275%
Source Step = 39.2959%
Source Step = 39.3643%
Source Step = 39.4327%
vernier = 0.00338645
Source Step = 39.525%
Source Step = 39.6277%
Source Step = 39.7303%
Source Step = 39.8329%
Source Step = 39.9355%
vernier = 0.00507967
Source Step = 39.9958%
Source Step = 40.0343%
Source Step = 40.0728%
Source Step = 40.1113%
Source Step = 40.1497%
vernier = 0.00190488
Source Step = 40.1959%
Source Step = 40.2536%
Source Step = 40.3114%
Source Step = 40.3691%
Source Step = 40.4268%
vernier = 0.00285731
Source Step = 40.4932%
Source Step = 40.5798%
Source Step = 40.6664%
Source Step = 40.753%
Source Step = 40.8395%
vernier = 0.00428597
Source Step = 40.9348%
Source Step = 41.0647%
Source Step = 41.1945%
Source Step = 41.3244%
Source Step = 41.4543%
vernier = 0.00642896
Source Step = 41.5907%
vernier = 0.00160724
Source Step = 41.6199%
Source Step = 41.6686%
Source Step = 41.7173%
Source Step = 41.766%
Source Step = 41.8147%
vernier = 0.00241086
Source Step = 41.8853%
Source Step = 41.9584%
Source Step = 42.0314%
Source Step = 42.1045%
Source Step = 42.1776%
vernier = 0.00361629
Source Step = 42.2798%
Source Step = 42.3894%
Source Step = 42.499%
Source Step = 42.6086%
Source Step = 42.7182%
vernier = 0.00542443
Source Step = 42.7757%
Source Step = 42.8168%
Source Step = 42.8579%
Source Step = 42.899%
Source Step = 42.9401%
vernier = 0.00203416
Source Step = 42.9914%
Source Step = 43.0531%
Source Step = 43.1147%
Source Step = 43.1764%
Source Step = 43.238%
vernier = 0.00305124
Source Step = 43.312%
Source Step = 43.4044%
Source Step = 43.4969%
Source Step = 43.5894%
Source Step = 43.6818%
vernier = 0.00457686
Source Step = 43.7535%
Source Step = 43.7882%
Source Step = 43.8228%
Source Step = 43.8575%
Source Step = 43.8922%
vernier = 0.00171632
Source Step = 43.9286%
Source Step = 43.9806%
Source Step = 44.0326%
Source Step = 44.0846%
Source Step = 44.1366%
Source Step = 44.1886%
vernier = 0.00257449
Source Step = 44.2666%
Source Step = 44.3447%
Source Step = 44.4227%
Source Step = 44.5007%
Source Step = 44.5787%
vernier = 0.00386173
Source Step = 44.6099%
Source Step = 44.6392%
Source Step = 44.6684%
Source Step = 44.6977%
Source Step = 44.7269%
vernier = 0.00144815
Source Step = 44.7664%
Source Step = 44.8103%
Source Step = 44.8542%
Source Step = 44.8981%
Source Step = 44.942%
vernier = 0.00217222
Source Step = 44.999%
Source Step = 45.0648%
Source Step = 45.1307%
Source Step = 45.1965%
Source Step = 45.2623%
vernier = 0.00325833
Source Step = 45.3446%
Source Step = 45.4433%
Source Step = 45.5421%
Source Step = 45.6408%
Source Step = 45.7395%
vernier = 0.0048875
Source Step = 45.8099%
Source Step = 45.8469%
Source Step = 45.8839%
Source Step = 45.921%
Source Step = 45.958%
vernier = 0.00183281
Source Step = 45.9987%
Source Step = 46.0543%
Source Step = 46.1098%
Source Step = 46.1653%
Source Step = 46.2209%
vernier = 0.00274922
Source Step = 46.2792%
Source Step = 46.3625%
Source Step = 46.4458%
Source Step = 46.5291%
Source Step = 46.6124%
Source Step = 46.6958%
vernier = 0.00412383
Source Step = 46.7239%
Source Step = 46.7551%
Source Step = 46.7864%
Source Step = 46.8176%
Source Step = 46.8488%
vernier = 0.00154644
Source Step = 46.8926%
Source Step = 46.9394%
Source Step = 46.9863%
Source Step = 47.0332%
Source Step = 47.08%
vernier = 0.00231965
Source Step = 47.1433%
Source Step = 47.2136%
Source Step = 47.2839%
Source Step = 47.3542%
Source Step = 47.4245%
vernier = 0.00347948
Source Step = 47.4657%
Source Step = 47.4921%
Source Step = 47.5185%
Source Step = 47.5448%
Source Step = 47.5712%
vernier = 0.00130481
Source Step = 47.6028%
Source Step = 47.6424%
Source Step = 47.6819%
Source Step = 47.7214%
Source Step = 47.761%
vernier = 0.00195721
Source Step = 47.8064%
Source Step = 47.8658%
Source Step = 47.9251%
Source Step = 47.9844%
Source Step = 48.0437%
vernier = 0.00293581
Source Step = 48.1089%
Source Step = 48.1979%
Source Step = 48.2869%
Source Step = 48.3758%
Source Step = 48.4648%
vernier = 0.00440372
Source Step = 48.5582%
vernier = 0.00110093
Source Step = 48.5782%
Source Step = 48.6116%
Source Step = 48.6449%
Source Step = 48.6783%
Source Step = 48.7117%
vernier = 0.00165139
Source Step = 48.76%
Source Step = 48.8101%
Source Step = 48.8601%
Source Step = 48.9102%
Source Step = 48.9602%
vernier = 0.00247709
Source Step = 49.0303%
Source Step = 49.1053%
Source Step = 49.1804%
Source Step = 49.2554%
Source Step = 49.3305%
vernier = 0.00371564
Source Step = 49.4318%
Source Step = 49.5444%
Source Step = 49.657%
Source Step = 49.7696%
Source Step = 49.8822%
vernier = 0.00557345
Source Step = 50.0286%
Source Step = 50.1975%
Source Step = 50.3664%
Source Step = 50.5353%
Source Step = 50.7042%
vernier = 0.00836018
Source Step = 50.9153%
Source Step = 51.1686%
Source Step = 51.422%
Source Step = 51.6753%
Source Step = 51.9286%
vernier = 0.0125403
Source Step = 52.2326%
Source Step = 52.6127%
Source Step = 52.9927%
Source Step = 53.3727%
Source Step = 53.7527%
vernier = 0.0188104
Source Step = 54.1897%
Source Step = 54.7597%
Source Step = 55.3297%
Source Step = 55.8997%
Source Step = 56.4697%
vernier = 0.0282156
Source Step = 57.0968%
Source Step = 57.9518%
Source Step = 58.8068%
Source Step = 59.6618%
Source Step = 60.5168%
vernier = 0.0423234
Source Step = 61.4146%
Source Step = 62.6971%
Source Step = 63.9797%
Source Step = 65.2622%
Source Step = 66.5447%
Source Step = 67.8272%
vernier = 0.0634851
Source Step = 69.751%
Source Step = 71.6748%
Source Step = 73.5986%
Source Step = 75.5224%
Source Step = 77.4462%
vernier = 0.0952277
Source Step = 80.2357%
Source Step = 83.1214%
Source Step = 86.0071%
Source Step = 88.8928%
Source Step = 91.7784%
vernier = 0.142842
Source Step = 95.8184%
Source Step = 100%
Source stepping succeeded in finding the operating point.


Date: Tue May 25 08:27:41 2021
Total elapsed time: 3.245 seconds.

tnom = 27
temp = 27
method = modified trap
totiter = 69171
traniter = 2100
tranpoints = 1051
accept = 1050
rejected = 1
matrix size = 43
fillins = 69
solver = Normal
Thread vector: 18.8/9.7[3] 2.2/5.3[1] 1.3/2.1[1] 0.1/1.0[1]  2592/500
Matrix Compiler1: 5.78 KB object code size  1.1/0.5/[0.3]
Matrix Compiler2: 4.97 KB object code size  0.4/0.8/[0.2]

